Circuit: * C:\Users\DonghoonPark\Desktop\ltspice_pytool\test\01_RC_circuit\01_RC_circuit.asc

.OP point found by inspection.

Date: Mon Dec 31 11:58:25 2018
Total elapsed time: 0.028 seconds.

tnom = 27
temp = 27
method = modified trap
totiter = 2082
traniter = 2082
tranpoints = 1042
accept = 1042
rejected = 0
matrix size = 3
fillins = 0
solver = Alternate
Matrix Compiler1:       3 opcodes  0.1/[0.0]/0.0
Matrix Compiler2: off  [0.0]/0.0/0.0

